LTspice 24.0.12 for Windows
Circuit: * C:\Users\papis\Documents\LTspice\PJ_elec2.asc
Start Time: Tue Dec  3 00:19:32 2024
solver = Normal
Maximum thread count: 12
tnom = 27
temp = 27
method = modified trap
WARNING: Node NC_01 is floating.

WARNING: Less than two connections to node nc_01.  This node is used by c3.
Direct Newton iteration for .op point succeeded.
Heightened Def Con from 0.00460898 to 0.00460898
Total elapsed time: 24.734 seconds.

